Circuit: * C:\Users\snk27\Documents\GitHub\SPICE_models\my SNSPD\nano_dyn.asc

Fatal Error: No analysis request found.
