Circuit: * C:\Users\snk27\Documents\GitHub\SPICE_models\my SNSPD\nano_dyn_test.asc

Direct Newton iteration for .op point succeeded.

Date: Sun May 30 13:34:37 2021
Total elapsed time: 2.115 seconds.

tnom = 27
temp = 27
method = modified trap
totiter = 201551
traniter = 201548
tranpoints = 100366
accept = 100253
rejected = 113
matrix size = 11
fillins = 1
solver = Normal
Matrix Compiler1: 468 bytes object code size  0.1/0.1/[0.1]
Matrix Compiler2: 727 bytes object code size  0.1/0.1/[0.1]

