Circuit: * C:\Users\snk27\Documents\GitHub\SPICE_models\my SNSPD\nano_dyn2.asc

Direct Newton iteration for .op point succeeded.

Date: Sat May 29 18:27:37 2021
Total elapsed time: 5.060 seconds.

tnom = 27
temp = 27
method = modified trap
totiter = 201551
traniter = 201548
tranpoints = 100366
accept = 100253
rejected = 113
matrix size = 11
fillins = 1
solver = Normal
Matrix Compiler1: 468 bytes object code size  0.2/0.1/[0.1]
Matrix Compiler2: 727 bytes object code size  0.1/0.2/[0.1]

