Circuit: * C:\Users\snk27\Documents\GitHub\SPICE_models\my SNSPD\spd_sq.asc

Direct Newton iteration for .op point succeeded.

Date: Sun May 30 14:11:56 2021
Total elapsed time: 1.483 seconds.

tnom = 27
temp = 27
method = modified trap
totiter = 201323
traniter = 201320
tranpoints = 100300
accept = 100220
rejected = 80
matrix size = 11
fillins = 1
solver = Normal
Matrix Compiler1: 468 bytes object code size  0.1/0.1/[0.1]
Matrix Compiler2: 727 bytes object code size  0.1/0.1/[0.1]

