Circuit: * C:\Users\snk27\Documents\GitHub\SPICE_models\my SNSPD\spd_MoSi.asc

Fatal Error: No analysis request found.
