Circuit: * C:\Users\snk27\Documents\GitHub\SPICE_models\spd_sq\spd_sq.asc

Direct Newton iteration for .op point succeeded.

Date: Mon May 31 10:26:50 2021
Total elapsed time: 6.995 seconds.

tnom = 27
temp = 27
method = modified trap
totiter = 384589
traniter = 384586
tranpoints = 100861
accept = 100600
rejected = 261
matrix size = 27
fillins = 8
solver = Normal
Matrix Compiler1: 2.21 KB object code size  1.0/0.8/[0.7]
Matrix Compiler2: off  [0.4]/1.4/0.4

